[General]
network = Network
eventlog-recording-intervals = 
fname-append-host = true
record-eventlog = true
resultdir-subdivision = true
sim-time-limit = 200s
**.param-record-as-scalar = true
